<?xml version="1.0" encoding="UTF-8"?>
<VisualStudioUserFile ProjectCreator="Intel Fortran" Keyword="Console Application" Version="11.0" ProjectIdGuid="{9DCF2814-D3E1-45BC-B145-0666F2F5A8F6}">
	<Configurations>
		<Configuration Name="Debug|Win32" CommandArguments="d:\IMOD-MODELS\LHM\AGGREGATE.INI" WorkingDirectory="d:\IMOD\"/>
		<Configuration Name="Release|Win32"/>
		<Configuration Name="Debug|x64" CommandArguments="d:\IMOD-MODELS\INT_PATHLINES\ARNHEM\IMOD_USER\RUNFILES\MODPATH7.INI" WorkingDirectory="D:\IMOD"/>
		<Configuration Name="Release|x64" CommandArguments="d:\IMOD-MODELS\SINGAPORE\SOLIDMODELLING\XYZ2IDF_1.INI" WorkingDirectory="d:\IMOD"/></Configurations></VisualStudioUserFile>
