coord_xll 200000.0
coord_yll 400000.0
coord_xll_nb 200000.0
coord_yll_nb 400000.0
coord_xur_nb 202500.0
coord_yur_nb 402500.0
starttime year 2000 month 1 day 1
resultdir 'd:\codes\clean\ossimod\MODFLOW\TESTBANK\TESTDATA\results\modflow'
